LAMMPS (10 Sep 2025 - Development - patch_10Sep2025-24-gccca772dc4-modified)
# bulk water

units           metal
boundary        p p p
atom_style      atomic

neighbor        2.0 bin
neigh_modify    every 10 delay 0 check no

read_data	pan.data
Reading data file ...
  orthogonal box = (0 0 0) to (40 40 40)
  reading atoms ...
  78 atoms

mass		1 12.0107
mass		2 1.0080
mass		3 14.067

# pair_style	deepmd frozen_model.pb fparam 0.68938740
pair_style	deepmd frozen_model.pb
Summary of lammps deepmd module ...
  >>> Info of deepmd-kit:
  installed to:       /home/ygn/.local/deepmd
  source:             v3.1.1-12-gb970b817
  source branch:      devel
  source commit:      b970b817
  source commit at:   2025-10-28 03:33:04 +0000
  support model ver.: 1.1
  build variant:      cpu
  build with tf inc:  /home/ygn/deepmd-kit/dpvenv/lib/python3.12/site-packages/tensorflow/include;/home/ygn/deepmd-kit/dpvenv/lib/python3.12/site-packages/tensorflow/include
  build with tf lib:  /home/ygn/deepmd-kit/dpvenv/lib/python3.12/site-packages/tensorflow/libtensorflow_cc.so.2
  set tf intra_op_parallelism_threads: 0
  set tf inter_op_parallelism_threads: 0
  >>> Info of lammps module:
  use deepmd-kit at:  /home/ygn/.local/lammps
  source:
  source branch:
  source commit:
  source commit at:
  build with inc:
  build with lib:
pair_coeff	* *

minimize 	0.0 1.0e-8 1000 100000

CITE-CITE-CITE-CITE-CITE-CITE-CITE-CITE-CITE-CITE-CITE-CITE-CITE

Your simulation uses code contributions which should be cited:

- USER-DEEPMD package:

@article{Wang_ComputPhysCommun_2018_v228_p178,
  author = {Wang, Han and Zhang, Linfeng and Han, Jiequn and E, Weinan},
  doi = {10.1016/j.cpc.2018.03.016},
  url = {https://doi.org/10.1016/j.cpc.2018.03.016},
  year = 2018,
  month = {jul},
  publisher = {Elsevier {BV}},
  volume = 228,
  journal = {Comput. Phys. Commun.},
  title = {{DeePMD-kit: A deep learning package for many-body potential energy representation and molecular dynamics}},
  pages = {178--184}
}
@article{Zeng_JChemPhys_2023_v159_p054801,
  title  = {{DeePMD-kit v2: A software package for deep potential models}},
  author =   {Jinzhe Zeng and Duo Zhang and Denghui Lu and Pinghui Mo and Zeyu Li
         and Yixiao Chen and Mari{\'a}n Rynik and Li'ang Huang and Ziyao Li and
         Shaochen Shi and Yingze Wang and Haotian Ye and Ping Tuo and Jiabin
         Yang and Ye Ding and Yifan Li and Davide Tisi and Qiyu Zeng and Han
         Bao and Yu Xia and Jiameng Huang and Koki Muraoka and Yibo Wang and
         Junhan Chang and Fengbo Yuan and Sigbj{\o}rn L{\o}land Bore and Chun
         Cai and Yinnian Lin and Bo Wang and Jiayan Xu and Jia-Xin Zhu and
         Chenxing Luo and Yuzhi Zhang and Rhys E A Goodall and Wenshuo Liang
         and Anurag Kumar Singh and Sikai Yao and Jingchao Zhang and Renata
         Wentzcovitch and Jiequn Han and Jie Liu and Weile Jia and Darrin M
         York and Weinan E and Roberto Car and Linfeng Zhang and Han Wang},
  journal =  {J. Chem. Phys.},
  volume =   159,
  issue =    5,
  year =    2023,
  pages  =   054801,
  doi =      {10.1063/5.0155600},
}
@Article{Zeng_JChemTheoryComput_2025_v21_p4375,
  author =   {Jinzhe Zeng and Duo Zhang and Anyang Peng and Xiangyu Zhang and Sensen
             He and Yan Wang and Xinzijian Liu and Hangrui Bi and Yifan Li and Chun
             Cai and Chengqian Zhang and Yiming Du and Jia-Xin Zhu and Pinghui Mo
             and Zhengtao Huang and Qiyu Zeng and Shaochen Shi and Xuejian Qin and
             Zhaoxi Yu and Chenxing Luo and Ye Ding and Yun-Pei Liu and Ruosong Shi
             and Zhenyu Wang and Sigbj{\o}rn L{\o}land Bore and Junhan Chang and
             Zhe Deng and Zhaohan Ding and Siyuan Han and Wanrun Jiang and Guolin
             Ke and Zhaoqing Liu and Denghui Lu and Koki Muraoka and Hananeh Oliaei
             and Anurag Kumar Singh and Haohui Que and Weihong Xu and Zhangmancang
             Xu and Yong-Bin Zhuang and Jiayu Dai and Timothy J. Giese and Weile
             Jia and Ben Xu and Darrin M. York and Linfeng Zhang and Han Wang},
    title =    {{DeePMD-kit v3: A Multiple-Backend Framework for Machine Learning
             Potentials}},
  journal =  {J. Chem. Theory Comput.},
  year =     2025,
  volume =   21,
  number =   9,
  pages =    {4375--4385},
  doi =      {10.1021/acs.jctc.5c00340},
}

CITE-CITE-CITE-CITE-CITE-CITE-CITE-CITE-CITE-CITE-CITE-CITE-CITE

Generated 0 of 3 mixed pair_coeff terms from geometric mixing rule
Step          Temp          E_pair         E_mol          TotEng         Press
0   0             -12466.556      0             -12466.556     -10.74792
Loop time of 5.87437 on 1 procs for 56 steps with 78 atoms

Minimization stats:
  Stopping criterion = linesearch alpha is zero
  Energy initial, next-to-last, final =
  Force two-norm initial, final = 0.733479 8.2696035
  Force max component initial, final = 0.32267456 2.600932
  Final line search alpha, max atom move = 1.4319433e-10 3.7243872e-10
  Iterations, force evaluations = 56 396

fix             1 all langevin 600 600 0.001 32324
fix		2 all nve/limit 0.1
timestep        0.0001
thermo_style    custom step pe ke etotal temp press vol
thermo          100
dump		1 all custom 100 traj.dump id type x y z fx fy fz

run             1000
Generated 0 of 3 mixed pair_coeff terms from geometric mixing rule
Step         PotEng         KinEng         TotEng          Temp          Press          Volume
56  -12486.379      0             -12486.379      0             -370.36496      64000
Averages over the last 6 of 12 rows, steps 600 to 1056:
PotEng KinEng TotEng Temp Press Volume
-12494.6 5.76414 -12488.9 579.134 -628.436 64000
Loop time of 14.5488 on 1 procs for 1000 steps with 78 atoms
